$
$ Jack Chessa, jfchessa@utep.edu
$
SOL 101
CEND
$
TITLE = Simple QUAD4 model
SUBCASE       1
  SPC =       1
  LOAD =      1
  DISPLACEMENT = ALL
  SPCFORCE = ALL
  STRESS(VONMISES) = ALL
  STRAIN(VONMISES) = ALL
  ELFORCE = ALL
$ 
$
BEGIN BULK
$
$------>------->------->------->------->------->------->------->------->------->
$      1       2       3       4       5       6       7       8       9      10
$
$             ID      CP       X       Y       Z     CID    PSPC 
GRID           1             0.0     0.0     0.0                     
GRID           2             5.0     0.0     0.0                     
GRID           3             5.0     5.0     0.0                     
GRID           4             0.0     5.0     0.0                  
$
$            EID     PID      G1      G2      G3      G4
CQUAD4         1       1       1       2       3       4
$
$            PID     MID       T             
PSHELL         1       1     1.0
$
$MAT1        MID       E       G      NU     RHO       A    TREF      GE
MAT1          1     10E6             0.3                                     
$
$            SID      G1      C1      D1      G2      C2      D2 
SPC            1       1  123456     0.0  
SPC            1       2      23     0.0  
SPC            1       2       1     0.1  
SPC            1       3       3     0.0  
SPC            1       3       1     0.1        
SPC            1       4   13456     0.0      
$
$            SID       G     CID       F      N1      N2      N3   
$FORCE          1       2         -5000.0     1.0     0.0     0.0     
$
ENDDATA